pandapower/test/converter/testfiles/test_ucte_AL_220.uct
##C 2007.05.01
UCTE Export
test_ucte-Berechnungsfall

----- NODE BLOCK -----
_________1_________2_________3_________4_________5_________6_________7_________8_________9________10________11________12________13
1234567890123456789012345678901234567890123456789012345678901234567890123456789012345678901234567890123456789012345678901234567890
Node    |Node Name   |S|T|Volt  |PLoad  |QLoad  |PGen   |QGen   |Pmin   |Pmax   |Qmin   |Qmax   |Sta  |Pprim  |Sks__  |X/R    |T|

##N
##ZAL
ABUS1_1L Bus1_AL      0 3 383.80       0       0 -1123.4 5148.70 9999.00 -9999.0 1827.25 -1827.3 
ABUS2_2_ Bus2_1_AL    0 0        1000.00 500.000       0       0 
ABUS2_1L Bus2_AL      0 0              0       0       0       0 
##C

----- LINE BLOCK -----
_________1_________2_________3_________4_________5_________6_________7
1234567890123456789012345678901234567890123456789012345678901234567890
Node 1  |Node 2  |O|S|R(Ohm)|X(Ohm)|B(uS)   |I(A)  |Element Name|

##L
ABUS2_1L ABUS1_1L 1 0 0.7198 3.0866 42.16017    768 line1_AL    
##C

----- 2 WINDING TRANSFORMER BLOCK -----
_________1_________2_________3_________4_________5_________6_________7_________8_________9
123456789012345678901234567890123456789012345678901234567890123456789012345678901234567890
Node 1  |Node 2  |O|S|U1   |U2   |Sn   |R(Ohm)|X(Ohm)|B(uS)   |G(uS) |I(A)  |Element Name|

##T
ABUS2_2_ ABUS2_1L 1 1 220.0 380.0 9999. 484.00 242.00        0      0  26241 Allgemeine I
##C

----- 2 WINDINGS TRANSFORMERS REGULATION BLOCK -----
_________1_________2_________3_________4_________5_________6_________7
1234567890123456789012345678901234567890123456789012345678901234567890
Node 1  |Node 2  |O|du   |mx|Tap|U    |du   |phitr|mx|Tap|P    |Type|

##R
ABUS2_2_ ABUS2_1L 1 
##C

----- 2 WINDINGS TRANSFORMERS DEPENDING ON THE TAP POSITION BLOCK -----
_________1_________2_________3_________4_________5_________6
123456789012345678901234567890123456789012345678901234567890
Node 1  |Node 2  |O| |Tap|R(Ohm)|X(Ohm)|du   |phi  |

##TT
